Circuit: * C:\Users\rubenelportero\Desktop\Making Devices\Projects\Loveu\havener.asc

Per .tran options, skipping operating point for transient analysis.

Date: Tue Jan 11 20:21:26 2022
Total elapsed time: 0.302 seconds.

tnom = 27
temp = 27
method = modified trap
totiter = 2828
traniter = 2828
tranpoints = 1254
accept = 1206
rejected = 48
matrix size = 14
fillins = 14
solver = Normal
Matrix Compiler1: 1.96 KB object code size  0.4/0.2/[0.1]
Matrix Compiler2: 1.47 KB object code size  0.2/0.2/[0.1]


